&time_control
run_days                            = 3, ! Ajustar p/ rodada
run_hours                           = 0, ! Ajustar p/ rodada
run_minutes                         = 0,
run_seconds                         = 0,
start_year                          = 2024,
start_month                         = 09,
start_day                           = 02,
start_hour                          = 00,
start_minute                        = 00,
start_second                        = 00,
end_year                            = 2024,
end_month                           = 09,
end_day                             = 05, ! ATENCAO
end_hour                            = 00, ! ATENCAO
end_minute                          = 00,
end_second                          = 00,
interval_seconds                    = 21600,! 3600 seg = 1 h
input_from_file                     = .true.,
history_interval                    = 180, ! 180 min = 3 hrs
history_outname                     = "/home/augusto.pereira/output/wrfout_d<domain>_<date>",


frames_per_outfile                  = 1,
restart                             = .false., ! .true. permite reinício se o job for interrompido
!restart_interval                    = 360,    ! 360 min = 6 hrs (gera wrfrst)
auxinput5_interval_m                = 1440,    ! 1380 min = 23 hrs
auxinput6_interval_m                = 1440,    ! 1380 min = 23 hrs
auxinput7_interval_m                = 1440,    ! 1380 min = 23 hrs
auxinput8_interval_m                = 1440,    ! 1380 min = 23 hrs
auxinput12_interval_m               = 1440,
io_form_history                     = 2, !5,
io_form_restart                     = 2, !11,  !2
io_form_input                       = 2,
io_form_boundary                    = 2,
io_form_auxinput5                   = 2, ! Verificar melhor
io_form_auxinput6                   = 2,
io_form_auxinput7                   = 2, ! Verificar melhor
io_form_auxinput8                   = 2, ! Verificar melhor
io_form_auxinput12                  = 2, ! 0,      ! avaliar
auxinput5_inname                    = 'wrfchemi_d<domain>_<date>',
auxinput6_inname                    = 'wrfbiochemi_d<domain>_<date>'
auxinput7_inname                    = 'wrffirechemi_d<domain>_<date>',
auxinput8_inname                    = 'wrfchemi_gocart_bg_d<domain>_<date>',
auxinput12_inname                   = 'wrf_chem_input_<date>',                ! avaliar
frames_per_auxinput5                = 1,
frames_per_auxinput6                = 1,
frames_per_auxinput7                = 1,
frames_per_auxinput8                = 1,
frames_per_auxinput12               = 1,
force_use_old_data                  = .true.,
debug_level                         = 1, !500 depuracao detalhada, !0 mostra mensagens essenciais
/

&domains
time_step                           = 120,
time_step_fract_num                 = 0,
time_step_fract_den                 = 1,
max_dom                             = 1,
e_we                                = 378,
e_sn                                = 402,
e_vert                              = 41,
p_top_requested                     = 5000,
num_metgrid_levels                  = 34,
num_metgrid_soil_levels             = 4,
dx                                  = 20000,
dy                                  = 20000,
grid_id                             = 1,
parent_id                           = 1,
i_parent_start                      = 1,
j_parent_start                      = 1,
parent_grid_ratio                   = 1,
parent_time_step_ratio              = 1,
feedback                            = 1,
smooth_option                       = 0,
nproc_x                             = 4, ! wrf_chem7.slurm !8,    ! 8 × 12 = 96 -> rodar com 96 tarefas: mpirun -np 96 ./wrf.exe
nproc_y                             = 16,! wrf_chem7.slurm !12,   ! 8 × 12 = 96 -> rodar com 96 tarefas: mpirun -np 96 ./wrf.exe
/

&physics
mp_physics                          = 8, ! 8 Thompson - 5 Eta (Ferrier)
ra_lw_physics                       = 4,
ra_sw_physics                       = 4,
radt                                = 10,
sf_sfclay_physics                   = 1,
sf_surface_physics                  = 2,
bl_pbl_physics                      = 1,
bldt                                = 0,
cu_physics                          = 16, ! 16 New Tiedke - 3 Grell e Freitas
cudt                                = 0,
!cu_diag                             = 1,  ! VER USER GUIDE
isfflx                              = 1,
ifsnow                              = 0,
icloud                              = 1,
surface_input_source                = 1,
num_soil_layers                     = 4,
num_land_cat                        = 21,
sf_urban_physics                    = 0,
/

&fdda
/

&dynamics
w_damping                           = 0,
diff_opt                            = 1,
km_opt                              = 4,
diff_6th_opt                        = 0,
diff_6th_factor                     = 0.12,
base_temp                           = 290.
damp_opt                            = 0,
zdamp                               = 5000.,
dampcoef                            = 0.2,
khdif                               = 0,
kvdif                               = 0,
non_hydrostatic                     = .true.,
moist_adv_opt                       = 1,
scalar_adv_opt                      = 1,
/

&bdy_control
spec_bdy_width                      = 5,
spec_zone                           = 1,
relax_zone                          = 4,
specified                           = .true.,
nested                              = .false.,
/

&grib2
/

&chem
 kemit                 = 1,
 chem_opt              = 301,
 bioemdt               = 30,
 photdt                = 30,
 chemdt                = 2.,
 io_style_emissions    = 2,
 emiss_inpt_opt        = 1,
 emiss_opt             = 5,
 chem_in_opt           = 1, !passo8
 phot_opt              = 1, !passo1
 gas_drydep_opt        = 1, !passo1
 aer_drydep_opt        = 1, !passo1
 bio_emiss_opt         = 1, !passo1
 dust_opt              = 0,
 dmsemis_opt           = 0,
 seas_opt              = 0,
 gas_bc_opt            = 1, !passo2
 gas_ic_opt            = 1, !passo2
 aer_bc_opt            = 1, !passo2
 aer_ic_opt            = 1, !passo2
 gaschem_onoff         = 1, !passo2
 aerchem_onoff         = 1, !passo2
 wetscav_onoff         = 0,
 cldchem_onoff         = 0,
 vertmix_onoff         = 1,
 chem_conv_tr          = 0, !1, !passo3
 biomass_burn_opt      = 1, !passo7
 plumerisefire_frq     = 30,!passo3
 scale_fire_emiss      = .false.,
 aer_op_opt            = 3, !passo4 !passo5
 aer_ra_feedback       = 1, !passo4
 have_bcs_chem         = .true.,
 opt_pars_out          = 1, !passo6
/

&namelist_quilt
nio_tasks_per_group = 0,
nio_groups = 1,

/

!&io_fields
! iofields_filename      = 'wrfout_fields.txt',
! ignore_iofields_warning = .true.,
!/
